!-Generator IDFEditor 1.53
!-Option SortedOrder

!-NOTE: All comments with '!-' are ignored by the IDFEditor and are generated automatically.
!-      Use '!' comments if they need to be retained when using the IDFEditor.


!-   ===========  ALL OBJECTS IN CLASS: VERSION ===========

Version,
    23.1;                    !- Version Identifier


!-   ===========  ALL OBJECTS IN CLASS: SIMULATIONCONTROL ===========

SimulationControl,
    No,                      !- Do Zone Sizing Calculation
    No,                      !- Do System Sizing Calculation
    No,                      !- Do Plant Sizing Calculation
    Yes,                     !- Run Simulation for Sizing Periods
    Yes,                     !- Run Simulation for Weather File Run Periods
    No,                      !- Do HVAC Sizing Simulation for Sizing Periods
    1;                       !- Maximum Number of HVAC Sizing Simulation Passes


!-   ===========  ALL OBJECTS IN CLASS: BUILDING ===========

Building,
    Building 1,              !- Name
    6.8,                     !- North Axis {deg}
    ,                        !- Terrain
    ,                        !- Loads Convergence Tolerance Value {W}
    ,                        !- Temperature Convergence Tolerance Value {deltaC}
    ,                        !- Solar Distribution
    ,                        !- Maximum Number of Warmup Days
    ;                        !- Minimum Number of Warmup Days


!-   ===========  ALL OBJECTS IN CLASS: SHADOWCALCULATION ===========

ShadowCalculation,
    PolygonClipping,         !- Shading Calculation Method
    Periodic,                !- Shading Calculation Update Frequency Method
    20,                      !- Shading Calculation Update Frequency
    15000,                   !- Maximum Figures in Shadow Overlap Calculations
    SutherlandHodgman;       !- Polygon Clipping Algorithm


!-   ===========  ALL OBJECTS IN CLASS: HEATBALANCEALGORITHM ===========

HeatBalanceAlgorithm,
    ConductionTransferFunction,  !- Algorithm
    200;                     !- Surface Temperature Upper Limit {C}


!-   ===========  ALL OBJECTS IN CLASS: ZONEAIRMASSFLOWCONSERVATION ===========

ZoneAirMassFlowConservation,
    None,                    !- Adjust Zone Mixing and Return For Air Mass Flow Balance
    None,                    !- Infiltration Balancing Method
    AllZones;                !- Infiltration Balancing Zones


!-   ===========  ALL OBJECTS IN CLASS: TIMESTEP ===========

Timestep,
    60;                      !- Number of Timesteps per Hour


!-   ===========  ALL OBJECTS IN CLASS: SITE:LOCATION ===========

Site:Location,
    Temixco,                 !- Name
    18.85,                   !- Latitude {deg}
    -99.14,                  !- Longitude {deg}
    -6,                      !- Time Zone {hr}
    1280;                    !- Elevation {m}


!-   ===========  ALL OBJECTS IN CLASS: RUNPERIOD ===========

RunPeriod,
    Run Period 1,            !- Name
    1,                       !- Begin Month
    1,                       !- Begin Day of Month
    2022,                    !- Begin Year
    1,                       !- End Month
    31,                      !- End Day of Month
    2022,                    !- End Year
    Friday,                  !- Day of Week for Start Day
    No,                      !- Use Weather File Holidays and Special Days
    No,                      !- Use Weather File Daylight Saving Period
    No,                      !- Apply Weekend Holiday Rule
    Yes,                     !- Use Weather File Rain Indicators
    Yes;                     !- Use Weather File Snow Indicators


!-   ===========  ALL OBJECTS IN CLASS: SITE:WEATHERSTATION ===========

Site:WeatherStation,
    5.25,                    !- Wind Sensor Height Above Ground {m}
    0.27,                    !- Wind Speed Profile Exponent
    415,                     !- Wind Speed Profile Boundary Layer Thickness {m}
    12.5;                    !- Air Temperature Sensor Height Above Ground {m}


!-   ===========  ALL OBJECTS IN CLASS: SITE:HEIGHTVARIATION ===========

Site:HeightVariation,
    0.27,                    !- Wind Speed Profile Exponent
    415,                     !- Wind Speed Profile Boundary Layer Thickness {m}
    0.0065;                  !- Air Temperature Gradient Coefficient {K/m}


!-   ===========  ALL OBJECTS IN CLASS: SCHEDULETYPELIMITS ===========

ScheduleTypeLimits,
    Actividad,               !- Name
    ,                        !- Lower Limit Value
    ,                        !- Upper Limit Value
    Continuous,              !- Numeric Type
    activitylevel;           !- Unit Type

ScheduleTypeLimits,
    CocinaVentilacion,       !- Name
    0,                       !- Lower Limit Value
    1,                       !- Upper Limit Value
    Continuous,              !- Numeric Type
    dimensionless;           !- Unit Type

ScheduleTypeLimits,
    Integer,                 !- Name
    0,                       !- Lower Limit Value
    1000,                    !- Upper Limit Value
    Discrete;                !- Numeric Type

ScheduleTypeLimits,
    OnOff,                   !- Name
    0,                       !- Lower Limit Value
    1,                       !- Upper Limit Value
    Discrete,                !- Numeric Type
    availability;            !- Unit Type

ScheduleTypeLimits,
    Percent,                 !- Name
    0,                       !- Lower Limit Value
    100,                     !- Upper Limit Value
    Continuous,              !- Numeric Type
    percent;                 !- Unit Type

ScheduleTypeLimits,
    Temperature,             !- Name
    0,                       !- Lower Limit Value
    100,                     !- Upper Limit Value
    Continuous,              !- Numeric Type
    temperature;             !- Unit Type

ScheduleTypeLimits,
    Fraccion,                !- Name
    ,                        !- Lower Limit Value
    ,                        !- Upper Limit Value
    Continuous,              !- Numeric Type
    Dimensionless;           !- Unit Type

ScheduleTypeLimits,
    NS_Plaza Thermostat Schedule Type Limits,  !- Name
    0,                       !- Lower Limit Value
    4,                       !- Upper Limit Value
    DISCRETE;                !- Numeric Type

ScheduleTypeLimits,
    Temperature 1,           !- Name
    ,                        !- Lower Limit Value
    ,                        !- Upper Limit Value
    Continuous,              !- Numeric Type
    temperature;             !- Unit Type


!-   ===========  ALL OBJECTS IN CLASS: SCHEDULE:DAY:INTERVAL ===========

Schedule:Day:Interval,
    Schedule Day 1,          !- Name
    Temperature 1,           !- Schedule Type Limits Name
    No,                      !- Interpolate to Timestep
    24:00,                   !- Time 1 {hh:mm}
    18;                      !- Value Until Time 1


!-   ===========  ALL OBJECTS IN CLASS: SCHEDULE:WEEK:DAILY ===========

Schedule:Week:Daily,
    Ground18 Week Rule - Jan1-Dec31,  !- Name
    Schedule Day 1,          !- Sunday Schedule:Day Name
    Schedule Day 1,          !- Monday Schedule:Day Name
    Schedule Day 1,          !- Tuesday Schedule:Day Name
    Schedule Day 1,          !- Wednesday Schedule:Day Name
    Schedule Day 1,          !- Thursday Schedule:Day Name
    Schedule Day 1,          !- Friday Schedule:Day Name
    Schedule Day 1,          !- Saturday Schedule:Day Name
    Schedule Day 1,          !- Holiday Schedule:Day Name
    Schedule Day 1,          !- SummerDesignDay Schedule:Day Name
    Schedule Day 1,          !- WinterDesignDay Schedule:Day Name
    Schedule Day 1,          !- CustomDay1 Schedule:Day Name
    Schedule Day 1;          !- CustomDay2 Schedule:Day Name


!-   ===========  ALL OBJECTS IN CLASS: SCHEDULE:YEAR ===========

Schedule:Year,
    Ground18,                !- Name
    Temperature 1,           !- Schedule Type Limits Name
    Ground18 Week Rule - Jan1-Dec31,  !- Schedule:Week Name 1
    1,                       !- Start Month 1
    1,                       !- Start Day 1
    12,                      !- End Month 1
    31;                      !- End Day 1


!-   ===========  ALL OBJECTS IN CLASS: SCHEDULE:COMPACT ===========

Schedule:Compact,
    Ocupacion,               !- Name
    Fraccion,                !- Schedule Type Limits Name
    Through: 3/31,           !- Field 1
    For: Weekdays,           !- Field 2
    Until: 7:40,             !- Field 3
    0,                       !- Field 4
    Until: 16:30,            !- Field 5
    0,                       !- Field 6
    Until: 24:00,            !- Field 7
    0,                       !- Field 8
    For: AllOtherDays,       !- Field 9
    Until: 24:00,            !- Field 10
    0,                       !- Field 11
    Through: 12/31,          !- Field 12
    For: AllDays,            !- Field 13
    Until: 24:00,            !- Field 14
    0;                       !- Field 15

Schedule:Compact,
    RefriON,                 !- Name
    Fraccion,                !- Schedule Type Limits Name
    Through: 12/31,          !- Field 1
    For: Weekdays,           !- Field 2
    Until: 24:00,            !- Field 3
    0,                       !- Field 4
    For: AllOtherDays,       !- Field 5
    Until: 24:00,            !- Field 6
    0;                       !- Field 7

Schedule:Compact,
    EstufaON,                !- Name
    Fraccion,                !- Schedule Type Limits Name
    Through: 3/31,           !- Field 1
    For: Weekdays,           !- Field 2
    Until: 7:40,             !- Field 3
    0,                       !- Field 4
    Until: 14:00,            !- Field 5
    0,                       !- Field 6
    Until: 16:30,            !- Field 7
    0,                       !- Field 8
    Until: 24:00,            !- Field 9
    0,                       !- Field 10
    For: AllOtherDays,       !- Field 11
    Until: 24:00,            !- Field 12
    0,                       !- Field 13
    Through: 12/31,          !- Field 14
    For: AllDays,            !- Field 15
    Until: 24:00,            !- Field 16
    0;                       !- Field 17

Schedule:Compact,
    Aperturas_cocina,        !- Name
    CocinaVentilacion,       !- Schedule Type Limits Name
    Through: 3/31,           !- Field 1
    For: Weekdays,           !- Field 2
    Until: 7:40,             !- Field 3
    0,                       !- Field 4
    Until: 15:30,            !- Field 5
    0,                       !- Field 6
    Until: 24:00,            !- Field 7
    0,                       !- Field 8
    For: AllOtherDays,       !- Field 9
    Until: 24:00,            !- Field 10
    0,                       !- Field 11
    Through: 12/31,          !- Field 12
    For: AllDays,            !- Field 13
    Until: 24:00,            !- Field 14
    0;                       !- Field 15

Schedule:Compact,
    PBCafe1_tsp,             !- Name
    Temperature,             !- Schedule Type Limits Name
    Through: 12/31,          !- Field 1
    For: AllDays,            !- Field 2
    Until: 24:00,            !- Field 3
    24;                      !- Field 4

Schedule:Compact,
    PBCafe1_hsp,             !- Name
    Percent,                 !- Schedule Type Limits Name
    Through: 12/31,          !- Field 1
    For: AllDays,            !- Field 2
    Until: 24:00,            !- Field 3
    80;                      !- Field 4

Schedule:Compact,
    EvapZones_type,          !- Name
    Integer,                 !- Schedule Type Limits Name
    Through: 12/31,          !- Field 1
    For: AllDays,            !- Field 2
    Until: 24:00,            !- Field 3
    4;                       !- Field 4

Schedule:Compact,
    PBCafe2_tsp,             !- Name
    Temperature,             !- Schedule Type Limits Name
    Through: 12/31,          !- Field 1
    For: AllDays,            !- Field 2
    Until: 24:00,            !- Field 3
    24;                      !- Field 4

Schedule:Compact,
    PBCafe2_hsp,             !- Name
    Percent,                 !- Schedule Type Limits Name
    Through: 12/31,          !- Field 1
    For: AllDays,            !- Field 2
    Until: 24:00,            !- Field 3
    80;                      !- Field 4

Schedule:Compact,
    Ocupacion_KF,            !- Name
    Fraccion,                !- Schedule Type Limits Name
    Through: 3/31,           !- Field 1
    For: Weekdays,           !- Field 2
    Until: 9:00,             !- Field 3
    0,                       !- Field 4
    Until: 14:00,            !- Field 5
    0,                       !- Field 6
    Until: 15:00,            !- Field 7
    0,                       !- Field 8
    Until: 24:00,            !- Field 9
    0,                       !- Field 10
    For:AllOtherDays,        !- Field 11
    Until: 24:00,            !- Field 12
    0,                       !- Field 13
    Through: 12/31,          !- Field 14
    For: AllDays,            !- Field 15
    Until: 24:00,            !- Field 16
    0;                       !- Field 17

Schedule:Compact,
    BldgAvailable_Z1,        !- Name
    OnOff,                   !- Schedule Type Limits Name
    Through: 2/28,           !- Field 1
    For: AllDays,            !- Field 2
    Until: 24:00,            !- Field 3
    0,                       !- Field 4
    Through: 12/31,          !- Field 5
    For: Monday,             !- Field 6
    Until: 13:50,            !- Field 7
    0,                       !- Field 8
    Until: 14:00,            !- Field 9
    0,                       !- Field 10
    Until: 14:10,            !- Field 11
    0,                       !- Field 12
    Until: 14:20,            !- Field 13
    0,                       !- Field 14
    Until: 14:30,            !- Field 15
    0,                       !- Field 16
    Until: 14:40,            !- Field 17
    0,                       !- Field 18
    Until: 14:50,            !- Field 19
    0,                       !- Field 20
    Until: 15:00,            !- Field 21
    0,                       !- Field 22
    Until: 15:10,            !- Field 23
    0,                       !- Field 24
    Until: 15:20,            !- Field 25
    0,                       !- Field 26
    Until: 24:00,            !- Field 27
    0,                       !- Field 28
    For: AllOtherDays,       !- Field 29
    Until: 13:00,            !- Field 30
    0,                       !- Field 31
    Until: 13:10,            !- Field 32
    1,                       !- Field 33
    Until: 13:20,            !- Field 34
    1,                       !- Field 35
    Until: 13:30,            !- Field 36
    1,                       !- Field 37
    Until: 13:40,            !- Field 38
    0,                       !- Field 39
    Until: 13:50,            !- Field 40
    0,                       !- Field 41
    Until: 14:00,            !- Field 42
    0,                       !- Field 43
    Until: 14:10,            !- Field 44
    1,                       !- Field 45
    Until: 14:20,            !- Field 46
    1,                       !- Field 47
    Until: 14:30,            !- Field 48
    1,                       !- Field 49
    Until: 14:40,            !- Field 50
    0,                       !- Field 51
    Until: 14:50,            !- Field 52
    0,                       !- Field 53
    Until: 15:00,            !- Field 54
    1,                       !- Field 55
    Until: 15:10,            !- Field 56
    1,                       !- Field 57
    Until: 15:20,            !- Field 58
    1,                       !- Field 59
    Until: 15:30,            !- Field 60
    1,                       !- Field 61
    Until: 15:40,            !- Field 62
    0,                       !- Field 63
    Until: 15:50,            !- Field 64
    0,                       !- Field 65
    Until: 16:00,            !- Field 66
    0,                       !- Field 67
    Until: 24:00,            !- Field 68
    0;                       !- Field 69

Schedule:Compact,
    BldgAvailable_Z2,        !- Name
    OnOff,                   !- Schedule Type Limits Name
    Through: 2/28,           !- Field 1
    For: AllDays,            !- Field 2
    Until: 24:00,            !- Field 3
    0,                       !- Field 4
    Through: 12/31,          !- Field 5
    For: Monday,             !- Field 6
    Until: 13:50,            !- Field 7
    0,                       !- Field 8
    Until: 14:00,            !- Field 9
    0,                       !- Field 10
    Until: 14:10,            !- Field 11
    0,                       !- Field 12
    Until: 14:20,            !- Field 13
    0,                       !- Field 14
    Until: 14:30,            !- Field 15
    0,                       !- Field 16
    Until: 14:40,            !- Field 17
    0,                       !- Field 18
    Until: 14:50,            !- Field 19
    0,                       !- Field 20
    Until: 15:00,            !- Field 21
    0,                       !- Field 22
    Until: 15:10,            !- Field 23
    0,                       !- Field 24
    Until: 15:20,            !- Field 25
    0,                       !- Field 26
    Until: 24:00,            !- Field 27
    0,                       !- Field 28
    For: AllOtherDays,       !- Field 29
    Until: 13:00,            !- Field 30
    0,                       !- Field 31
    Until: 13:10,            !- Field 32
    0,                       !- Field 33
    Until: 13:20,            !- Field 34
    0,                       !- Field 35
    Until: 13:30,            !- Field 36
    0,                       !- Field 37
    Until: 13:40,            !- Field 38
    1,                       !- Field 39
    Until: 13:50,            !- Field 40
    1,                       !- Field 41
    Until: 14:00,            !- Field 42
    1,                       !- Field 43
    Until: 14:10,            !- Field 44
    0,                       !- Field 45
    Until: 14:20,            !- Field 46
    0,                       !- Field 47
    Until: 14:30,            !- Field 48
    0,                       !- Field 49
    Until: 14:40,            !- Field 50
    1,                       !- Field 51
    Until: 14:50,            !- Field 52
    1,                       !- Field 53
    Until: 15:00,            !- Field 54
    1,                       !- Field 55
    Until: 15:10,            !- Field 56
    1,                       !- Field 57
    Until: 15:20,            !- Field 58
    1,                       !- Field 59
    Until: 15:30,            !- Field 60
    1,                       !- Field 61
    Until: 15:40,            !- Field 62
    0,                       !- Field 63
    Until: 15:50,            !- Field 64
    0,                       !- Field 65
    Until: 16:00,            !- Field 66
    0,                       !- Field 67
    Until: 24:00,            !- Field 68
    0;                       !- Field 69

Schedule:Compact,
    NS_Plaza Thermostat Schedule,  !- Name
    NS_Plaza Thermostat Schedule Type Limits,  !- Schedule Type Limits Name
    Through: 12/31,          !- Field 1
    For: AllDays,            !- Field 2
    Until: 24:00,            !- Field 3
    4;                       !- Field 4


!-   ===========  ALL OBJECTS IN CLASS: SCHEDULE:CONSTANT ===========

Schedule:Constant,
    Actividad,               !- Name
    Actividad,               !- Schedule Type Limits Name
    207;                     !- Hourly Value

Schedule:Constant,
    Actividad_KF,            !- Name
    Actividad,               !- Schedule Type Limits Name
    108;                     !- Hourly Value


!-   ===========  ALL OBJECTS IN CLASS: MATERIAL ===========

Material,
    14cmTabique,             !- Name
    Smooth,                  !- Roughness
    0.14,                    !- Thickness {m}
    0.7,                     !- Conductivity {W/m-K}
    1970,                    !- Density {kg/m3}
    800,                     !- Specific Heat {J/kg-K}
    0.9,                     !- Thermal Absorptance
    0.7,                     !- Solar Absorptance
    0.7;                     !- Visible Absorptance

Material,
    16cmCAD,                 !- Name
    Smooth,                  !- Roughness
    0.16,                    !- Thickness {m}
    2,                       !- Conductivity {W/m-K}
    2400,                    !- Density {kg/m3}
    1000,                    !- Specific Heat {J/kg-K}
    0.9,                     !- Thermal Absorptance
    0.4,                     !- Solar Absorptance
    0.4;                     !- Visible Absorptance

Material,
    20cmCAD,                 !- Name
    Smooth,                  !- Roughness
    0.2,                     !- Thickness {m}
    2,                       !- Conductivity {W/m-K}
    2400,                    !- Density {kg/m3}
    1000,                    !- Specific Heat {J/kg-K}
    0.9,                     !- Thermal Absorptance
    0.4,                     !- Solar Absorptance
    0.4;                     !- Visible Absorptance

Material,
    70cmCAD,                 !- Name
    Smooth,                  !- Roughness
    0.7,                     !- Thickness {m}
    2,                       !- Conductivity {W/m-K}
    2400,                    !- Density {kg/m3}
    1000,                    !- Specific Heat {J/kg-K}
    0.9,                     !- Thermal Absorptance
    0.4,                     !- Solar Absorptance
    0.4;                     !- Visible Absorptance

Material,
    F08 Metal surface,       !- Name
    Smooth,                  !- Roughness
    0.0008,                  !- Thickness {m}
    45.28,                   !- Conductivity {W/m-K}
    7824,                    !- Density {kg/m3}
    500,                     !- Specific Heat {J/kg-K}
    0.9,                     !- Thermal Absorptance
    0.7,                     !- Solar Absorptance
    0.7;                     !- Visible Absorptance


!-   ===========  ALL OBJECTS IN CLASS: MATERIAL:NOMASS ===========

Material:NoMass,
    AirWallMark,             !- Name
    VerySmooth,              !- Roughness
    0.1,                     !- Thermal Resistance {m2-K/W}
    0.9,                     !- Thermal Absorptance
    0.9,                     !- Solar Absorptance
    0.9;                     !- Visible Absorptance


!-   ===========  ALL OBJECTS IN CLASS: WINDOWMATERIAL:SIMPLEGLAZINGSYSTEM ===========

WindowMaterial:SimpleGlazingSystem,
    SGSWM_Single3mm,         !- Name
    5.705,                   !- U-Factor {W/m2-K}
    0.76,                    !- Solar Heat Gain Coefficient
    0.752;                   !- Visible Transmittance


!-   ===========  ALL OBJECTS IN CLASS: CONSTRUCTION ===========

Construction,
    Air Wall,                !- Name
    AirWallMark,             !- Outside Layer
    AirWallMark,             !- Layer 2
    AirWallMark;             !- Layer 3

Construction,
    Exterior Door,           !- Name
    F08 Metal surface;       !- Outside Layer

Construction,
    NCaf_N1_N2_Muros,        !- Name
    14cmTabique;             !- Outside Layer

Construction,
    NCaf_N1_N2_PisoTechos,   !- Name
    16cmCAD;                 !- Outside Layer

Construction,
    NS_Envolvente,           !- Name
    20cmCAD;                 !- Outside Layer

Construction,
    NS_MuroContencion,       !- Name
    70cmCAD;                 !- Outside Layer

Construction,
    Ventanas,                !- Name
    SGSWM_Single3mm;         !- Outside Layer


!-   ===========  ALL OBJECTS IN CLASS: GLOBALGEOMETRYRULES ===========

GlobalGeometryRules,
    UpperLeftCorner,         !- Starting Vertex Position
    Counterclockwise,        !- Vertex Entry Direction
    Relative,                !- Coordinate System
    Relative,                !- Daylighting Reference Point Coordinate System
    Relative;                !- Rectangular Surface Coordinate System


!-   ===========  ALL OBJECTS IN CLASS: ZONE ===========

Zone,
    EvapZone,                !- Name
    -0,                      !- Direction of Relative North {deg}
    14.81,                   !- X Origin {m}
    46.83,                   !- Y Origin {m}
    3.5;                     !- Z Origin {m}

Zone,
    EvapZone2,               !- Name
    -0,                      !- Direction of Relative North {deg}
    1.46,                    !- X Origin {m}
    56.66,                   !- Y Origin {m}
    3.5;                     !- Z Origin {m}

Zone,
    N1,                      !- Name
    -1.19270800554882e-015,  !- Direction of Relative North {deg}
    0.71,                    !- X Origin {m}
    46.83,                   !- Y Origin {m}
    7;                       !- Z Origin {m}

Zone,
    N2,                      !- Name
    -1.19270800554882e-015,  !- Direction of Relative North {deg}
    0.71,                    !- X Origin {m}
    46.83,                   !- Y Origin {m}
    10.5;                    !- Z Origin {m}

Zone,
    NCafeteria,              !- Name
    -1.19270800554882e-015,  !- Direction of Relative North {deg}
    0.71,                    !- X Origin {m}
    46.83,                   !- Y Origin {m}
    3.5;                     !- Z Origin {m}

Zone,
    NCafeteria_Cocina,       !- Name
    -1.19270800554882e-015,  !- Direction of Relative North {deg}
    10.71,                   !- X Origin {m}
    60.83,                   !- Y Origin {m}
    3.5;                     !- Z Origin {m}

Zone,
    NS,                      !- Name
    -1.19270800554882e-015,  !- Direction of Relative North {deg}
    0.71,                    !- X Origin {m}
    46.83,                   !- Y Origin {m}
    0;                       !- Z Origin {m}

Zone,
    NS_Plaza,                !- Name
    -0,                      !- Direction of Relative North {deg}
    10.71,                   !- X Origin {m}
    40.83,                   !- Y Origin {m}
    -7.33191285462453e-017;  !- Z Origin {m}


!-   ===========  ALL OBJECTS IN CLASS: BUILDINGSURFACE:DETAILED ===========

BuildingSurface:Detailed,
    EvapZone_MuroEste,       !- Name
    Wall,                    !- Surface Type
    NCaf_N1_N2_Muros,        !- Construction Name
    EvapZone,                !- Zone Name
    ,                        !- Space Name
    Outdoors,                !- Outside Boundary Condition
    ,                        !- Outside Boundary Condition Object
    SunExposed,              !- Sun Exposure
    WindExposed,             !- Wind Exposure
    ,                        !- View Factor to Ground
    ,                        !- Number of Vertices
    0,                       !- Vertex 1 X-coordinate {m}
    0,                       !- Vertex 1 Y-coordinate {m}
    3.5,                     !- Vertex 1 Z-coordinate {m}
    0,                       !- Vertex 2 X-coordinate {m}
    0,                       !- Vertex 2 Y-coordinate {m}
    0,                       !- Vertex 2 Z-coordinate {m}
    0,                       !- Vertex 3 X-coordinate {m}
    14,                      !- Vertex 3 Y-coordinate {m}
    0,                       !- Vertex 3 Z-coordinate {m}
    0,                       !- Vertex 4 X-coordinate {m}
    14,                      !- Vertex 4 Y-coordinate {m}
    3.5;                     !- Vertex 4 Z-coordinate {m}

BuildingSurface:Detailed,
    EvapZone_MuroNorte,      !- Name
    Wall,                    !- Surface Type
    NCaf_N1_N2_Muros,        !- Construction Name
    EvapZone,                !- Zone Name
    ,                        !- Space Name
    Outdoors,                !- Outside Boundary Condition
    ,                        !- Outside Boundary Condition Object
    SunExposed,              !- Sun Exposure
    WindExposed,             !- Wind Exposure
    ,                        !- View Factor to Ground
    ,                        !- Number of Vertices
    0,                       !- Vertex 1 X-coordinate {m}
    14,                      !- Vertex 1 Y-coordinate {m}
    3.5,                     !- Vertex 1 Z-coordinate {m}
    0,                       !- Vertex 2 X-coordinate {m}
    14,                      !- Vertex 2 Y-coordinate {m}
    0,                       !- Vertex 2 Z-coordinate {m}
    -1.4,                    !- Vertex 3 X-coordinate {m}
    14,                      !- Vertex 3 Y-coordinate {m}
    0,                       !- Vertex 3 Z-coordinate {m}
    -1.4,                    !- Vertex 4 X-coordinate {m}
    14,                      !- Vertex 4 Y-coordinate {m}
    3.5;                     !- Vertex 4 Z-coordinate {m}

BuildingSurface:Detailed,
    EvapZone_MuroOeste,      !- Name
    Wall,                    !- Surface Type
    NCaf_N1_N2_Muros,        !- Construction Name
    EvapZone,                !- Zone Name
    ,                        !- Space Name
    Surface,                 !- Outside Boundary Condition
    NCafeteria-MuroEvap,     !- Outside Boundary Condition Object
    NoSun,                   !- Sun Exposure
    NoWind,                  !- Wind Exposure
    ,                        !- View Factor to Ground
    ,                        !- Number of Vertices
    -1.4,                    !- Vertex 1 X-coordinate {m}
    14,                      !- Vertex 1 Y-coordinate {m}
    3.5,                     !- Vertex 1 Z-coordinate {m}
    -1.4,                    !- Vertex 2 X-coordinate {m}
    14,                      !- Vertex 2 Y-coordinate {m}
    0,                       !- Vertex 2 Z-coordinate {m}
    -1.4,                    !- Vertex 3 X-coordinate {m}
    0,                       !- Vertex 3 Y-coordinate {m}
    0,                       !- Vertex 3 Z-coordinate {m}
    -1.4,                    !- Vertex 4 X-coordinate {m}
    0,                       !- Vertex 4 Y-coordinate {m}
    3.5;                     !- Vertex 4 Z-coordinate {m}

BuildingSurface:Detailed,
    EvapZone_MuroSur,        !- Name
    Wall,                    !- Surface Type
    NCaf_N1_N2_Muros,        !- Construction Name
    EvapZone,                !- Zone Name
    ,                        !- Space Name