
OS:Version,
  {33a51625-3a45-4e05-8f28-0e7bbf9eb1c5}, !- Handle
  2.9.1;                                  !- Version Identifier

OS:ScheduleTypeLimits,
  {8df27130-2a08-44c8-a73c-8f79ea0082a9}, !- Handle
  Actividad,                              !- Name
  ,                                       !- Lower Limit Value
  ,                                       !- Upper Limit Value
  Continuous,                             !- Numeric Type
  ActivityLevel;                          !- Unit Type

OS:ScheduleTypeLimits,
  {8cc8d4da-23c4-4f9e-aa51-7eb0140ab926}, !- Handle
  CocinaVentilacion,                      !- Name
  0,                                      !- Lower Limit Value
  1,                                      !- Upper Limit Value
  Continuous,                             !- Numeric Type
  Dimensionless;                          !- Unit Type

OS:ScheduleTypeLimits,
  {e586c2e8-d339-43d1-aaf4-aa17c8c0424d}, !- Handle
  Percent,                                !- Name
  0,                                      !- Lower Limit Value
  100,                                    !- Upper Limit Value
  Continuous,                             !- Numeric Type
  percent;                                !- Unit Type

OS:ScheduleTypeLimits,
  {dbf5224c-afe7-43f9-85fb-1ef864bdc24a}, !- Handle
  Temperature,                            !- Name
  0,                                      !- Lower Limit Value
  100,                                    !- Upper Limit Value
  Continuous,                             !- Numeric Type
  temperature;                            !- Unit Type

OS:ScheduleTypeLimits,
  {42960ace-dc7d-400e-ad5d-0afd8268bef4}, !- Handle
  Integer,                                !- Name
  0,                                      !- Lower Limit Value
  1000,                                   !- Upper Limit Value
  Discrete;                               !- Numeric Type

OS:ScheduleTypeLimits,
  {3cb32957-5e36-4c24-b4e2-5de88cfb6dad}, !- Handle
  OnOff,                                  !- Name
  0,                                      !- Lower Limit Value
  1,                                      !- Upper Limit Value
  Discrete,                               !- Numeric Type
  availability;                           !- Unit Type

OS:Material,
  {cad22253-9e76-4cd3-86c1-1f37793079d3}, !- Handle
  14cmTabique,                            !- Name
  Smooth,                                 !- Roughness
  0.14,                                   !- Thickness {m}
  0.7,                                    !- Conductivity {W/m-K}
  1970,                                   !- Density {kg/m3}
  800,                                    !- Specific Heat {J/kg-K}
  0.9,                                    !- Thermal Absorptance
  0.7,                                    !- Solar Absorptance
  0.7;                                    !- Visible Absorptance

OS:Material,
  {96df6db5-f538-4bba-b097-cbd61905223b}, !- Handle
  16cmCAD,                                !- Name
  Smooth,                                 !- Roughness
  0.16,                                   !- Thickness {m}
  2,                                      !- Conductivity {W/m-K}
  2400,                                   !- Density {kg/m3}
  1000,                                   !- Specific Heat {J/kg-K}
  0.9,                                    !- Thermal Absorptance
  0.4,                                    !- Solar Absorptance
  0.4;                                    !- Visible Absorptance

OS:Material,
  {ca78731b-9d67-4732-8093-abc156fd2a13}, !- Handle
  20cmCAD,                                !- Name
  Smooth,                                 !- Roughness
  0.2,                                    !- Thickness {m}
  2,                                      !- Conductivity {W/m-K}
  2400,                                   !- Density {kg/m3}
  1000,                                   !- Specific Heat {J/kg-K}
  0.9,                                    !- Thermal Absorptance
  0.4,                                    !- Solar Absorptance
  0.4;                                    !- Visible Absorptance

OS:Material,
  {251e7cab-89bc-404b-88fc-60acf5b3f43f}, !- Handle
  70cmCAD,                                !- Name
  Smooth,                                 !- Roughness
  0.7,                                    !- Thickness {m}
  2,                                      !- Conductivity {W/m-K}
  2400,                                   !- Density {kg/m3}
  1000,                                   !- Specific Heat {J/kg-K}
  0.9,                                    !- Thermal Absorptance
  0.4,                                    !- Solar Absorptance
  0.4;                                    !- Visible Absorptance

OS:Material,
  {57b59039-59c6-4b7f-b14a-6caeb33778e8}, !- Handle
  F08 Metal surface,                      !- Name
  Smooth,                                 !- Roughness
  0.0008,                                 !- Thickness {m}
  45.28,                                  !- Conductivity {W/m-K}
  7824,                                   !- Density {kg/m3}
  500,                                    !- Specific Heat {J/kg-K}
  0.9,                                    !- Thermal Absorptance
  0.7,                                    !- Solar Absorptance
  0.7;                                    !- Visible Absorptance

OS:Material:NoMass,
  {e6fbe64a-3909-4e12-981a-e9ad9c55496f}, !- Handle
  AirWallMark,                            !- Name
  VerySmooth,                             !- Roughness
  0.1,                                    !- Thermal Resistance {m2-K/W}
  0.9,                                    !- Thermal Absorptance
  0.9,                                    !- Solar Absorptance
  0.9;                                    !- Visible Absorptance

OS:WindowMaterial:SimpleGlazingSystem,
  {80eaaf71-1e0c-4ee3-9752-7a2cecafc88c}, !- Handle
  SGSWM_Single3mm,                        !- Name
  5.705,                                  !- U-Factor {W/m2-K}
  0.76,                                   !- Solar Heat Gain Coefficient
  0.752;                                  !- Visible Transmittance

OS:Construction,
  {6540c0f6-dd1c-4efa-b48c-320740896279}, !- Handle
  Exterior Door,                          !- Name
  {2f0bbae8-1d9c-4150-af56-cb70f2461158}, !- Surface Rendering Name
  {57b59039-59c6-4b7f-b14a-6caeb33778e8}; !- Layer 1

OS:Construction,
  {3cc3a5ac-346f-48ec-a37b-fd6de413a9f8}, !- Handle
  NCaf_N1_N2_Muros,                       !- Name
  {f7181826-ad7d-42ed-b026-0a1b9baf5d99}, !- Surface Rendering Name
  {cad22253-9e76-4cd3-86c1-1f37793079d3}; !- Layer 1

OS:Construction,
  {f2975f1e-f3b1-4b13-8bf6-9f690f12ffe8}, !- Handle
  NCaf_N1_N2_PisoTechos,                  !- Name
  {0698a178-30b2-41f5-bd39-5eaa330f9929}, !- Surface Rendering Name
  {96df6db5-f538-4bba-b097-cbd61905223b}; !- Layer 1

OS:Construction,
  {af0f6050-5c0c-4f21-9535-82decdac47c2}, !- Handle
  NS_Envolvente,                          !- Name
  {a3273950-15da-4ca0-8a1c-2d807e3a20af}, !- Surface Rendering Name
  {ca78731b-9d67-4732-8093-abc156fd2a13}; !- Layer 1

OS:Construction,
  {d6044496-963f-4e8f-9e7c-60e93c834cae}, !- Handle
  NS_MuroContencion,                      !- Name
  {15f0265c-c891-4ed3-bcc5-6c0c39b42ebf}, !- Surface Rendering Name
  {251e7cab-89bc-404b-88fc-60acf5b3f43f}; !- Layer 1

OS:Construction,
  {b3a2754d-d71d-4d77-a1fa-2c2d88650447}, !- Handle
  Ventanas,                               !- Name
  {b26cbce4-607a-484f-9423-30d206ccd6cf}, !- Surface Rendering Name
  {80eaaf71-1e0c-4ee3-9752-7a2cecafc88c}; !- Layer 1

OS:Construction,
  {b7853300-f0cd-42b3-9f32-5edfa9ba32c5}, !- Handle
  Air Wall,                               !- Name
  {714f0a6e-ab03-488a-b26a-ed3a1ba39a21}, !- Surface Rendering Name
  {e6fbe64a-3909-4e12-981a-e9ad9c55496f}, !- Layer 1
  {e6fbe64a-3909-4e12-981a-e9ad9c55496f}, !- Layer 2
  {e6fbe64a-3909-4e12-981a-e9ad9c55496f}; !- Layer 3

OS:ShadingSurface,
  {af90dbb3-5fe3-4d63-b197-d5c9b05d7264}, !- Handle
  Shading Surface 14,                     !- Name
  ,                                       !- Construction Name
  {4bfc3650-dad2-4f1a-adf5-f223a7dfd309}, !- Shading Surface Group Name
  ,                                       !- Transmittance Schedule Name
  ,                                       !- Number of Vertices
  0.71, 52.76, 2.2,                       !- X,Y,Z Vertex 1 {m}
  0.71, 52.76, 1,                         !- X,Y,Z Vertex 2 {m}
  0.0100000000000047, 51.76, 1,           !- X,Y,Z Vertex 3 {m}
  0.0100000000000047, 51.76, 2.2;         !- X,Y,Z Vertex 4 {m}

OS:ShadingSurfaceGroup,
  {4bfc3650-dad2-4f1a-adf5-f223a7dfd309}, !- Handle
  {9e95c3b6-b60c-4dbc-a562-891745663199}, !- Name
  Building,                               !- Shading Surface Type
  ,                                       !- Space Name
  -0,                                     !- Direction of Relative North {deg}
  0,                                      !- X Origin {m}
  0,                                      !- Y Origin {m}
  -7.33191285462453e-017,                 !- Z Origin {m}
  ;                                       !- Shaded Object Name

OS:ThermalZone,
  {8132e32f-7c3f-41a7-95e6-a4144c62d6e3}, !- Handle
  Thermal Zone: N1,                       !- Name
  ,                                       !- Multiplier
  ,                                       !- Ceiling Height {m}
  ,                                       !- Volume {m3}
  ,                                       !- Floor Area {m2}
  ,                                       !- Zone Inside Convection Algorithm
  ,                                       !- Zone Outside Convection Algorithm
  ,                                       !- Zone Conditioning Equipment List Name
  {3395045d-54b2-4fe6-849c-6c5a4df09f9a}, !- Zone Air Inlet Port List
  {d50d56e1-82ac-43c2-a9a2-28cc1c339821}, !- Zone Air Exhaust Port List
  {1c93a71b-935c-4f35-9498-1b6a21e2acc9}, !- Zone Air Node Name
  {691e24fa-8ad0-46f6-9b14-24636c1402a6}, !- Zone Return Air Port List
  ,                                       !- Primary Daylighting Control Name
  ,                                       !- Fraction of Zone Controlled by Primary Daylighting Control
  ,                                       !- Secondary Daylighting Control Name
  ,                                       !- Fraction of Zone Controlled by Secondary Daylighting Control
  ,                                       !- Illuminance Map Name
  {dc79adf0-672a-4953-aa01-f2a9123c30a9}, !- Group Rendering Name
  ,                                       !- Thermostat Name
  No,                                     !- Use Ideal Air Loads
  ;                                       !- Humidistat Name

OS:Node,
  {5bea6a1e-03e6-4418-8b2d-6616227d0ec7}, !- Handle
  {b3e448fd-e8fa-4439-b337-cb0dd6cbd468}, !- Name
  {1c93a71b-935c-4f35-9498-1b6a21e2acc9}, !- Inlet Port
  ;                                       !- Outlet Port

OS:Connection,
  {1c93a71b-935c-4f35-9498-1b6a21e2acc9}, !- Handle
  {f89a7daf-27bb-49e8-8d55-9f0c0f088f87}, !- Name
  {8132e32f-7c3f-41a7-95e6-a4144c62d6e3}, !- Source Object
  11,                                     !- Outlet Port
  {5bea6a1e-03e6-4418-8b2d-6616227d0ec7}, !- Target Object
  2;                                      !- Inlet Port

OS:PortList,
  {3395045d-54b2-4fe6-849c-6c5a4df09f9a}, !- Handle
  {cba1cb43-4d6d-402c-adc4-e2fba9c1ff08}, !- Name
  {8132e32f-7c3f-41a7-95e6-a4144c62d6e3}; !- HVAC Component

OS:PortList,
  {d50d56e1-82ac-43c2-a9a2-28cc1c339821}, !- Handle
  {24445f70-eec3-4d5a-9ddf-2c3bebdeb5cc}, !- Name
  {8132e32f-7c3f-41a7-95e6-a4144c62d6e3}; !- HVAC Component

OS:PortList,
  {691e24fa-8ad0-46f6-9b14-24636c1402a6}, !- Handle
  {28d59401-adc2-41a1-b1a4-31d517fed893}, !- Name
  {8132e32f-7c3f-41a7-95e6-a4144c62d6e3}; !- HVAC Component

OS:Sizing:Zone,
  {cd7bf53f-be17-4906-96f0-1d107d02d5a6}, !- Handle
  {8132e32f-7c3f-41a7-95e6-a4144c62d6e3}, !- Zone or ZoneList Name
  SupplyAirTemperature,                   !- Zone Cooling Design Supply Air Temperature Input Method
  14,                                     !- Zone Cooling Design Supply Air Temperature {C}
  11.11,                                  !- Zone Cooling Design Supply Air Temperature Difference {deltaC}
  SupplyAirTemperature,                   !- Zone Heating Design Supply Air Temperature Input Method
  40,                                     !- Zone Heating Design Supply Air Temperature {C}
  11.11,                                  !- Zone Heating Design Supply Air Temperature Difference {deltaC}
  0.0085,                                 !- Zone Cooling Design Supply Air Humidity Ratio {kg-H2O/kg-air}
  0.008,                                  !- Zone Heating Design Supply Air Humidity Ratio {kg-H2O/kg-air}
  ,                                       !- Zone Heating Sizing Factor
  ,                                       !- Zone Cooling Sizing Factor
  DesignDay,                              !- Cooling Design Air Flow Method
  ,                                       !- Cooling Design Air Flow Rate {m3/s}
  ,                                       !- Cooling Minimum Air Flow per Zone Floor Area {m3/s-m2}
  ,                                       !- Cooling Minimum Air Flow {m3/s}
  ,                                       !- Cooling Minimum Air Flow Fraction
  DesignDay,                              !- Heating Design Air Flow Method
  ,                                       !- Heating Design Air Flow Rate {m3/s}
  ,                                       !- Heating Maximum Air Flow per Zone Floor Area {m3/s-m2}
  ,                                       !- Heating Maximum Air Flow {m3/s}
  ,                                       !- Heating Maximum Air Flow Fraction
  ,                                       !- Design Zone Air Distribution Effectiveness in Cooling Mode
  ,                                       !- Design Zone Air Distribution Effectiveness in Heating Mode
  No,                                     !- Account for Dedicated Outdoor Air System
  NeutralSupplyAir,                       !- Dedicated Outdoor Air System Control Strategy
  autosize,                               !- Dedicated Outdoor Air Low Setpoint Temperature for Design {C}
  autosize;                               !- Dedicated Outdoor Air High Setpoint Temperature for Design {C}

OS:ZoneHVAC:EquipmentList,
  {acfd9ba1-d56c-426a-8d5d-9e9f548b2dbf}, !- Handle
  {e8abd73f-5741-4c1c-90a1-e102d171bea5}, !- Name
  {8132e32f-7c3f-41a7-95e6-a4144c62d6e3}; !- Thermal Zone

OS:Space,
  {957769c0-7934-4836-a4b2-b4d6fda8b7a6}, !- Handle
  N1,                                     !- Name
  ,                                       !- Space Type Name
  ,                                       !- Default Construction Set Name
  ,                                       !- Default Schedule Set Name
  -1.19270800554882e-015,                 !- Direction of Relative North {deg}
  0.71,                                   !- X Origin {m}
  46.83,                                  !- Y Origin {m}
  7,                                      !- Z Origin {m}
  ,                                       !- Building Story Name
  {8132e32f-7c3f-41a7-95e6-a4144c62d6e3}, !- Thermal Zone Name
  ,                                       !- Part of Total Floor Area
  ,                                       !- Design Specification Outdoor Air Object Name
  ;                                       !- Building Unit Name

OS:ThermalZone,
  {416e00fd-e7af-407e-b283-7482fe74b3f1}, !- Handle
  Thermal Zone: N2,                       !- Name
  ,                                       !- Multiplier
  ,                                       !- Ceiling Height {m}
  ,                                       !- Volume {m3}
  ,                                       !- Floor Area {m2}
  ,                                       !- Zone Inside Convection Algorithm
  ,                                       !- Zone Outside Convection Algorithm
  ,                                       !- Zone Conditioning Equipment List Name
  {1e55cfaa-815e-4b8e-8649-4d59589e1cec}, !- Zone Air Inlet Port List
  {d2e6c04c-c68b-4585-97d1-b50347abe59a}, !- Zone Air Exhaust Port List
  {a2f4b98b-252e-4183-ba08-5cab56ca2642}, !- Zone Air Node Name
  {565a3771-269b-47fd-9c32-f7e433d8192a}, !- Zone Return Air Port List
  ,                                       !- Primary Daylighting Control Name
  ,                                       !- Fraction of Zone Controlled by Primary Daylighting Control
  ,                                       !- Secondary Daylighting Control Name
  ,                                       !- Fraction of Zone Controlled by Secondary Daylighting Control
  ,                                       !- Illuminance Map Name
  {fc22bd9b-9e5c-41f0-91fe-65ee2458cefd}, !- Group Rendering Name
  ,                                       !- Thermostat Name
  No;                                     !- Use Ideal Air Loads

OS:Node,
  {064b6406-002f-423f-973f-cbe1628e6a72}, !- Handle
  {354c6564-bfc8-4962-87c1-7e0e611396ac}, !- Name
  {a2f4b98b-252e-4183-ba08-5cab56ca2642}, !- Inlet Port
  ;                                       !- Outlet Port

OS:Connection,
  {a2f4b98b-252e-4183-ba08-5cab56ca2642}, !- Handle
  {793d3e3b-7d4c-40e0-901b-c3aef9c474e4}, !- Name
  {416e00fd-e7af-407e-b283-7482fe74b3f1}, !- Source Object
  11,                                     !- Outlet Port
  {064b6406-002f-423f-973f-cbe1628e6a72}, !- Target Object
  2;                                      !- Inlet Port

OS:PortList,
  {1e55cfaa-815e-4b8e-8649-4d59589e1cec}, !- Handle
  {3a21d957-e6f6-4260-83d4-d1a8928fb081}, !- Name
  {416e00fd-e7af-407e-b283-7482fe74b3f1}; !- HVAC Component

OS:PortList,
  {d2e6c04c-c68b-4585-97d1-b50347abe59a}, !- Handle
  {b4d8648d-8e08-490d-b205-fa76d4f19fb0}, !- Name
  {416e00fd-e7af-407e-b283-7482fe74b3f1}; !- HVAC Component

OS:PortList,
  {565a3771-269b-47fd-9c32-f7e433d8192a}, !- Handle
  {ad8af27f-59db-48e6-8afe-140002558200}, !- Name
  {416e00fd-e7af-407e-b283-7482fe74b3f1}; !- HVAC Component

OS:Sizing:Zone,
  {9a82f9c8-d829-472d-a1b0-b8290c823919}, !- Handle
  {416e00fd-e7af-407e-b283-7482fe74b3f1}, !- Zone or ZoneList Name
  SupplyAirTemperature,                   !- Zone Cooling Design Supply Air Temperature Input Method
  14,                                     !- Zone Cooling Design Supply Air Temperature {C}
  11.11,                                  !- Zone Cooling Design Supply Air Temperature Difference {deltaC}
  SupplyAirTemperature,                   !- Zone Heating Design Supply Air Temperature Input Method
  40,                                     !- Zone Heating Design Supply Air Temperature {C}
  11.11,                                  !- Zone Heating Design Supply Air Temperature Difference {deltaC}
  0.0085,                                 !- Zone Cooling Design Supply Air Humidity Ratio {kg-H2O/kg-air}
  0.008,                                  !- Zone Heating Design Supply Air Humidity Ratio {kg-H2O/kg-air}
  ,                                       !- Zone Heating Sizing Factor
  ,                                       !- Zone Cooling Sizing Factor
  DesignDay,                              !- Cooling Design Air Flow Method
  ,                                       !- Cooling Design Air Flow Rate {m3/s}
  ,                                       !- Cooling Minimum Air Flow per Zone Floor Area {m3/s-m2}
  ,                                       !- Cooling Minimum Air Flow {m3/s}
  ,                                       !- Cooling Minimum Air Flow Fraction
  DesignDay,                              !- Heating Design Air Flow Method
  ,                                       !- Heating Design Air Flow Rate {m3/s}
  ,                                       !- Heating Maximum Air Flow per Zone Floor Area {m3/s-m2}
  ,                                       !- Heating Maximum Air Flow {m3/s}
  ,                                       !- Heating Maximum Air Flow Fraction
  ,                                       !- Design Zone Air Distribution Effectiveness in Cooling Mode
  ,                                       !- Design Zone Air Distribution Effectiveness in Heating Mode
  No,                                     !- Account for Dedicated Outdoor Air System
  NeutralSupplyAir,                       !- Dedicated Outdoor Air System Control Strategy
  autosize,                               !- Dedicated Outdoor Air Low Setpoint Temperature for Design {C}
  autosize;                               !- Dedicated Outdoor Air High Setpoint Temperature for Design {C}

OS:ZoneHVAC:EquipmentList,
  {79c0ab2e-48d8-4b58-a80c-585db7a30d4a}, !- Handle
  {f86eddba-9fe9-4b7a-81bd-d58533bded41}, !- Name
  {416e00fd-e7af-407e-b283-7482fe74b3f1}; !- Thermal Zone

OS:Space,
  {e0b2a5ba-5256-476c-9a2b-81fabb8d0369}, !- Handle
  N2,                                     !- Name
  ,                                       !- Space Type Name
  ,                                       !- Default Construction Set Name
  ,                                       !- Default Schedule Set Name
  -1.19270800554882e-015,                 !- Direction of Relative North {deg}
  0.71,                                   !- X Origin {m}
  46.83,                                  !- Y Origin {m}
  10.5,                                   !- Z Origin {m}
  ,                                       !- Building Story Name
  {416e00fd-e7af-407e-b283-7482fe74b3f1}, !- Thermal Zone Name
  ,                                       !- Part of Total Floor Area
  ,                                       !- Design Specification Outdoor Air Object Name
  ;                                       !- Building Unit Name

OS:ThermalZone,
  {4a29ed1e-7191-4c03-b6a9-935ac13cb7d5}, !- Handle
  Thermal Zone: NCafeteria,               !- Name
  ,                                       !- Multiplier
  ,                                       !- Ceiling Height {m}
  ,                                       !- Volume {m3}
  ,                                       !- Floor Area {m2}
  ,                                       !- Zone Inside Convection Algorithm
  ,                                       !- Zone Outside Convection Algorithm
  ,                                       !- Zone Conditioning Equipment List Name
  {34b95b71-0560-476a-935c-e159d1e4a646}, !- Zone Air Inlet Port List
  {adc73050-0e3e-4528-9bfa-3a5e25f7e1f7}, !- Zone Air Exhaust Port List
  {79c38581-39cc-4e0a-87a3-83db74f13785}, !- Zone Air Node Name
  {ee531675-319f-48cf-bbb8-4877964b9f42}, !- Zone Return Air Port List
  ,                                       !- Primary Daylighting Control Name
  ,                                       !- Fraction of Zone Controlled by Primary Daylighting Control
  ,                                       !- Secondary Daylighting Control Name
  ,                                       !- Fraction of Zone Controlled by Secondary Daylighting Control
  ,                                       !- Illuminance Map Name
  {2e1f2869-2542-4e5d-928d-18666c5f878d}, !- Group Rendering Name
  ,                                       !- Thermostat Name
  No,                                     !- Use Ideal Air Loads
  ;                                       !- Humidistat Name

OS:Node,
  {7b37b111-0d0b-4ef9-9b52-d06e348cb257}, !- Handle
  {51e41823-43e4-4260-8123-5f4510cf92ae}, !- Name
  {79c38581-39cc-4e0a-87a3-83db74f13785}, !- Inlet Port
  ;                                       !- Outlet Port

OS:Connection,
  {79c38581-39cc-4e0a-87a3-83db74f13785}, !- Handle
  {80992577-54b9-4b7d-b8c6-ee195cac4ed0}, !- Name
  {4a29ed1e-7191-4c03-b6a9-935ac13cb7d5}, !- Source Object
  11,                                     !- Outlet Port
  {7b37b111-0d0b-4ef9-9b52-d06e348cb257}, !- Target Object
  2;                                      !- Inlet Port

OS:PortList,
  {34b95b71-0560-476a-935c-e159d1e4a646}, !- Handle
  {9a084b55-6f09-4b19-8989-b4f64ba7b573}, !- Name
  {4a29ed1e-7191-4c03-b6a9-935ac13cb7d5}; !- HVAC Component

OS:PortList,
  {adc73050-0e3e-4528-9bfa-3a5e25f7e1f7}, !- Handle
  {3fa9a575-2517-4555-a8e5-9f01b322cd0b}, !- Name
  {4a29ed1e-7191-4c03-b6a9-935ac13cb7d5}; !- HVAC Component

OS:PortList,
  {ee531675-319f-48cf-bbb8-4877964b9f42}, !- Handle
  {0bd0077d-dcd5-44f2-b4df-28c415601091}, !- Name
  {4a29ed1e-7191-4c03-b6a9-935ac13cb7d5}; !- HVAC Component

OS:Sizing:Zone,
  {fea31aa6-9095-4db3-9b1a-b5b2a269d5a0}, !- Handle
  {4a29ed1e-7191-4c03-b6a9-935ac13cb7d5}, !- Zone or ZoneList Name
  SupplyAirTemperature,                   !- Zone Cooling Design Supply Air Temperature Input Method
  14,                                     !- Zone Cooling Design Supply Air Temperature {C}
  11.11,                                  !- Zone Cooling Design Supply Air Temperature Difference {deltaC}
  SupplyAirTemperature,                   !- Zone Heating Design Supply Air Temperature Input Method
  40,                                     !- Zone Heating Design Supply Air Temperature {C}
  11.11,                                  !- Zone Heating Design Supply Air Temperature Difference {deltaC}
  0.0085,                                 !- Zone Cooling Design Supply Air Humidity Ratio {kg-H2O/kg-air}
  0.008,                                  !- Zone Heating Design Supply Air Humidity Ratio {kg-H2O/kg-air}
  ,                                       !- Zone Heating Sizing Factor
  ,                                       !- Zone Cooling Sizing Factor
  DesignDay,                              !- Cooling Design Air Flow Method
  ,                                       !- Cooling Design Air Flow Rate {m3/s}
  ,                                       !- Cooling Minimum Air Flow per Zone Floor Area {m3/s-m2}
  ,                                       !- Cooling Minimum Air Flow {m3/s}
  ,                                       !- Cooling Minimum Air Flow Fraction
  DesignDay,                              !- Heating Design Air Flow Method
  ,                                       !- Heating Design Air Flow Rate {m3/s}
  ,                                       !- Heating Maximum Air Flow per Zone Floor Area {m3/s-m2}
  ,                                       !- Heating Maximum Air Flow {m3/s}
  ,                                       !- Heating Maximum Air Flow Fraction
  ,                                       !- Design Zone Air Distribution Effectiveness in Cooling Mode
  ,                                       !- Design Zone Air Distribution Effectiveness in Heating Mode
  No,                                     !- Account for Dedicated Outdoor Air System
  NeutralSupplyAir,                       !- Dedicated Outdoor Air System Control Strategy
  autosize,                               !- Dedicated Outdoor Air Low Setpoint Temperature for Design {C}
  autosize;                               !- Dedicated Outdoor Air High Setpoint Temperature for Design {C}

OS:ZoneHVAC:EquipmentList,
  {98c76c58-e9d8-4e71-b611-63fbf370e9de}, !- Handle
  {2a7038b0-27f8-44ce-97dc-635a8994f0f1}, !- Name
  {4a29ed1e-7191-4c03-b6a9-935ac13cb7d5}; !- Thermal Zone

OS:Space,
  {10996067-50b2-4263-89b5-8d94d09f0823}, !- Handle
  NCafeteria,                             !- Name
  ,                                       !- Space Type Name
  ,                                       !- Default Construction Set Name
  ,                                       !- Default Schedule Set Name
  -1.19270800554882e-015,                 !- Direction of Relative North {deg}
  0.71,                                   !- X Origin {m}
  46.83,                                  !- Y Origin {m}
  3.5,                                    !- Z Origin {m}
  ,                                       !- Building Story Name
  {4a29ed1e-7191-4c03-b6a9-935ac13cb7d5}, !- Thermal Zone Name
  ,                                       !- Part of Total Floor Area
  ,                                       !- Design Specification Outdoor Air Object Name
  ;                                       !- Building Unit Name

OS:ThermalZone,
  {a661ba99-8654-4865-8089-51111b9b486e}, !- Handle
  Thermal Zone: NCafeteria_Cocina,        !- Name
  ,                                       !- Multiplier
  ,                                       !- Ceiling Height {m}
  ,                                       !- Volume {m3}
  ,                                       !- Floor Area {m2}
  ,                                       !- Zone Inside Convection Algorithm
  ,                                       !- Zone Outside Convection Algorithm
  ,                                       !- Zone Conditioning Equipment List Name
  {a78c00d1-6bcc-49a9-8038-7ad539d87c92}, !- Zone Air Inlet Port List
  {01378ab5-b271-4c72-966d-8d64a14c7b83}, !- Zone Air Exhaust Port List
  {639b8ffc-87d6-42f0-9400-ce51845b6fc3}, !- Zone Air Node Name
  {b8b4e81b-4231-4c78-ab59-1824a24b4969}, !- Zone Return Air Port List
  ,                                       !- Primary Daylighting Control Name
  ,                                       !- Fraction of Zone Controlled by Primary Daylighting Control
  ,                                       !- Secondary Daylighting Control Name
  ,                                       !- Fraction of Zone Controlled by Secondary Daylighting Control
  ,                                       !- Illuminance Map Name
  {c2dc3444-e842-4c4b-80e8-88db4d3a3a52}, !- Group Rendering Name
  ,                                       !- Thermostat Name
  No;                                     !- Use Ideal Air Loads

OS:Node,
  {37455838-e0a7-439f-ba91-0df82f6423c5}, !- Handle
  {6fc5a0be-61f1-4303-a136-be5b868a5fb2}, !- Name
  {639b8ffc-87d6-42f0-9400-ce51845b6fc3}, !- Inlet Port
  ;                                       !- Outlet Port

OS:Connection,
  {639b8ffc-87d6-42f0-9400-ce51845b6fc3}, !- Handle
  {82adfafa-253b-4da6-8a9c-69fbd0590c56}, !- Name
  {a661ba99-8654-4865-8089-51111b9b486e}, !- Source Object
  11,                                     !- Outlet Port